/*--------------------------------*- C++ -*----------------------------------*\
  =========                 |
  \\      /  F ield         | OpenFOAM: The Open Source CFD Toolbox
   \\    /   O peration     | Website:  https://openfoam.org
    \\  /    A nd           | Version:  7  
     \\/     M anipulation  |
\*---------------------------------------------------------------------------*/
FoamFile
{
    version     2.0;
    format      ascii;
    class       volScalarField;
    location    "0";
    object      omega;
}
// * * * * * * * * * * * * * * * * * * * * * * * * * * * * * * * * * * * * * //

dimensions      [0 0 -1 0 0 0 0];

internalField   uniform 2.601665;

boundaryField
{
    frontandback
    {
        type            empty;
    }
    inlet
    {
        type            freestream;
        freestreamValue uniform 2.601665;
    }
    outlet
    {
        type            freestream;
        freestreamValue uniform 2.601665;
    }
    airfoil1
    {
        type            omegaWallFunction;
        value           uniform 0;
    }
    airfoil2
    {
        type            omegaWallFunction;
        value           uniform 0;
    }
}


// ************************************************************************* //
