/*--------------------------------*- C++ -*----------------------------------*\
  =========                 |
  \\      /  F ield         | OpenFOAM: The Open Source CFD Toolbox
   \\    /   O peration     | Website:  https://openfoam.org
    \\  /    A nd           | Version:  9
     \\/     M anipulation  |
\*---------------------------------------------------------------------------*/
FoamFile
{
    version	2.0;
    format      ascii;
    class       dictionary;
    location    "system";
    object      fvSolution;
}
// * * * * * * * * * * * * * * * * * * * * * * * * * * * * * * * * * * * * * //

solvers
{	
    /*p
    {
	solver          PCG;
	preconditioner  DIC;
	tolerance       1e-6;
	relTol          0.01;
    }*/
    
    p
    {
        solver          GAMG;
        smoother        GaussSeidel;
        tolerance       1e-6;
        relTol          0.01;
    }

    pFinal
    {
        $p;
        relTol          0;
    }

    "(rho|U|k|omega|e)"
    {
        solver          PBiCGStab;
        preconditioner  DILU;
        tolerance       1e-06;
        relTol          0.1;
    }
    
    "(rho|U|k|omega|e)Final"
    {
        $U;
        relTol          0;
    }
}

SIMPLE
{
    nNonOrthogonalCorrectors 2;
    pMinFactor      0.1;
    pMaxFactor      2;

    residualControl
    {
        p               	    1e-5;
        U               	    1e-5;
        "(k|omega|e)"             1e-5;
    }
}

PIMPLE
{
    nCorrectors              2;
    nNonOrthogonalCorrectors 1;
    nOuterCorrectors         1;
    pMinFactor      0.1;
    pMaxFactor      2;
}

relaxationFactors
{
    fields
    {
        p               0.3;
        rho             0.01;
    }
    equations
    {
        U               	     0.7;
        e                           0.7;
        "(k|omega)"                 0.7;
    }
}

// ************************************************************************* //
